# generated using pymatgen
data_Mn3H4C16(N4O5)2
_symmetry_space_group_name_H-M   'P 1'
_cell_length_a   14.73910000
_cell_length_b   21.31300000
_cell_length_c   39.33665076
_cell_angle_alpha   105.65850353
_cell_angle_beta   90.09188845
_cell_angle_gamma   91.40200000
_symmetry_Int_Tables_number   1
_chemical_formula_structural   Mn3H4C16(N4O5)2
_chemical_formula_sum   'Mn24 H32 C128 N64 O80'
_cell_volume   11894.40302965
_cell_formula_units_Z   8
loop_
 _symmetry_equiv_pos_site_id
 _symmetry_equiv_pos_as_xyz
  1  'x, y, z'
loop_
 _atom_site_type_symbol
 _atom_site_label
 _atom_site_symmetry_multiplicity
 _atom_site_fract_x
 _atom_site_fract_y
 _atom_site_fract_z
 _atom_site_occupancy
  Mn  Mn0  1  0.47278000  0.78636000  0.64536000  1.0
  Mn  Mn1  1  0.07820000  0.66688000  0.57530000  1.0
  Mn  Mn2  1  0.26960000  0.72748000  0.61876000  1.0
  Mn  Mn3  1  0.69936000  0.89775000  0.31957000  1.0
  Mn  Mn4  1  0.27878000  0.79529000  0.33855000  1.0
  Mn  Mn5  1  0.49116000  0.84382000  0.32912000  1.0
  Mn  Mn6  1  0.76742000  0.47118000  0.35236000  1.0
  Mn  Mn7  1  0.42964000  0.27472000  0.34624000  1.0
  Mn  Mn8  1  0.59624000  0.36632000  0.33162000  1.0
  Mn  Mn9  1  0.67076000  0.21505000  0.64805000  1.0
  Mn  Mn10  1  0.04694000  0.26207000  0.56851000  1.0
  Mn  Mn11  1  0.86932000  0.24682000  0.61798000  1.0
  Mn  Mn12  1  0.93840000  0.69587000  0.14343000  1.0
  Mn  Mn13  1  0.56870000  0.78496000  0.07500000  1.0
  Mn  Mn14  1  0.74878000  0.74210000  0.11358000  1.0
  Mn  Mn15  1  0.18150000  0.91420000  0.80598000  1.0
  Mn  Mn16  1  0.79446000  0.78495000  0.83753000  1.0
  Mn  Mn17  1  0.99086000  0.85095000  0.82573000  1.0
  Mn  Mn18  1  0.24636000  0.43670000  0.84780000  1.0
  Mn  Mn19  1  0.95556000  0.19749000  0.83611000  1.0
  Mn  Mn20  1  0.09394000  0.31579000  0.83083000  1.0
  Mn  Mn21  1  0.23686000  0.13394000  0.13460000  1.0
  Mn  Mn22  1  0.52860000  0.32582000  0.08268000  1.0
  Mn  Mn23  1  0.38610000  0.23441000  0.11461000  1.0
  H  H24  1  0.20466000  0.52127000  0.49161000  1.0
  H  H25  1  0.66720000  0.57018000  0.45768000  1.0
  H  H26  1  0.86258000  0.10337000  0.52819000  1.0
  H  H27  1  0.45704000  0.98820000  0.43410000  1.0
  H  H28  1  0.19002000  0.45983000  0.95981000  1.0
  H  H29  1  0.76276000  0.59521000  0.00997000  1.0
  H  H30  1  0.97330000  0.97658000  0.92912000  1.0
  H  H31  1  0.37548000  0.14205000  0.00519000  1.0
  H  H32  1  0.95296000  0.38281000  0.75127000  1.0
  H  H33  1  0.21208000  0.67731000  0.71553000  1.0
  H  H34  1  0.38962000  0.91114000  0.25026000  1.0
  H  H35  1  0.61310000  0.17350000  0.16060000  1.0
  H  H36  1  0.58252000  0.60256000  0.31202000  1.0
  H  H37  1  0.73602000  0.51468000  0.13656000  1.0
  H  H38  1  0.02524000  0.16834000  0.68706000  1.0
  H  H39  1  0.82234000  0.92807000  0.75703000  1.0
  H  H40  1  0.21678000  0.19022000  0.72982000  1.0
  H  H41  1  0.23070000  0.85961000  0.72937000  1.0
  H  H42  1  0.46826000  0.70475000  0.21807000  1.0
  H  H43  1  0.37418000  0.37994000  0.22162000  1.0
  H  H44  1  0.78730000  0.91823000  0.18957000  1.0
  H  H45  1  0.43680000  0.20812000  0.25470000  1.0
  H  H46  1  0.77060000  0.66630000  0.73224000  1.0
  H  H47  1  0.17682000  0.42110000  0.65956000  1.0
  H  H48  1  0.59818000  0.78994000  0.41888000  1.0
  H  H49  1  0.25622000  0.73589000  0.53227000  1.0
  H  H50  1  0.74036000  0.38246000  0.40596000  1.0
  H  H51  1  0.67686000  0.25484000  0.55078000  1.0
  H  H52  1  0.96070000  0.65483000  0.89419000  1.0
  H  H53  1  0.81344000  0.90921000  0.03589000  1.0
  H  H54  1  0.24482000  0.33050000  0.90180000  1.0
  H  H55  1  0.15822000  0.25949000  0.06277000  1.0
  C  C56  1  0.14082000  0.63287000  0.64025000  1.0
  C  C57  1  0.26122000  0.61645000  0.55083000  1.0
  C  C58  1  0.39912000  0.77605000  0.57643000  1.0
  C  C59  1  0.30078000  0.85776000  0.66612000  1.0
  C  C60  1  0.43354000  0.77257000  0.38161000  1.0
  C  C61  1  0.40510000  0.71831000  0.28517000  1.0
  C  C62  1  0.53324000  0.94695000  0.29325000  1.0
  C  C63  1  0.59618000  0.94613000  0.38519000  1.0
  C  C64  1  0.57294000  0.32709000  0.39511000  1.0
  C  C65  1  0.59148000  0.22475000  0.30189000  1.0
  C  C66  1  0.62200000  0.47502000  0.29946000  1.0
  C  C67  1  0.60606000  0.48148000  0.39614000  1.0
  C  C68  1  0.98750000  0.36664000  0.63188000  1.0
  C  C69  1  0.85802000  0.28465000  0.55129000  1.0
  C  C70  1  0.73278000  0.14917000  0.57761000  1.0
  C  C71  1  0.84826000  0.16358000  0.66500000  1.0
  C  C72  1  0.75566000  0.79690000  0.05106000  1.0
  C  C73  1  0.66208000  0.87285000  0.13873000  1.0
  C  C74  1  0.75316000  0.64744000  0.15674000  1.0
  C  C75  1  0.87142000  0.63686000  0.07116000  1.0
  C  C76  1  0.96462000  0.76493000  0.87117000  1.0
  C  C77  1  0.90232000  0.73366000  0.77528000  1.0
  C  C78  1  0.00036000  0.94135000  0.78201000  1.0
  C  C79  1  0.09212000  0.96580000  0.87318000  1.0
  C  C80  1  0.09178000  0.25564000  0.88768000  1.0
  C  C81  1  0.12320000  0.18219000  0.79039000  1.0
  C  C82  1  0.07924000  0.43003000  0.80335000  1.0
  C  C83  1  0.10012000  0.43003000  0.89737000  1.0
  C  C84  1  0.44030000  0.36933000  0.15351000  1.0
  C  C85  1  0.33368000  0.31193000  0.06647000  1.0
  C  C86  1  0.27258000  0.13494000  0.06252000  1.0
  C  C87  1  0.43576000  0.11349000  0.13061000  1.0
  C  C88  1  0.45740000  0.56687000  0.48967000  1.0
  C  C89  1  0.41540000  0.52268000  0.46060000  1.0
  C  C90  1  0.27614000  0.53412000  0.49152000  1.0
  C  C91  1  0.31716000  0.57932000  0.52074000  1.0
  C  C92  1  0.59612000  0.55652000  0.45818000  1.0
  C  C93  1  0.55430000  0.51237000  0.42877000  1.0
  C  C94  1  0.62102000  0.05567000  0.49273000  1.0
  C  C95  1  0.69672000  0.03855000  0.47105000  1.0
  C  C96  1  0.79398000  0.08985000  0.51867000  1.0
  C  C97  1  0.71872000  0.10796000  0.54086000  1.0
  C  C98  1  0.52484000  0.00256000  0.44430000  1.0
  C  C99  1  0.60110000  0.98573000  0.42253000  1.0
  C  C100  1  0.94402000  0.51572000  0.97000000  1.0
  C  C101  1  0.00420000  0.53016000  0.99886000  1.0
  C  C102  1  0.12012000  0.47467000  0.96237000  1.0
  C  C103  1  0.06144000  0.46035000  0.93287000  1.0
  C  C104  1  0.83074000  0.57650000  0.00714000  1.0
  C  C105  1  0.89190000  0.59177000  0.03597000  1.0
  C  C106  1  0.20282000  0.06598000  0.95440000  1.0
  C  C107  1  0.14094000  0.06036000  0.98044000  1.0
  C  C108  1  0.03742000  0.00289000  0.93603000  1.0
  C  C109  1  0.10122000  0.00592000  0.90996000  1.0
  C  C110  1  0.30930000  0.11883000  0.99845000  1.0
  C  C111  1  0.24870000  0.11157000  0.02475000  1.0
  C  C112  1  0.08594000  0.54288000  0.74914000  1.0
  C  C113  1  0.02192000  0.49631000  0.71273000  1.0
  C  C114  1  0.98720000  0.42700000  0.74898000  1.0
  C  C115  1  0.04736000  0.46137000  0.77679000  1.0
  C  C116  1  0.16612000  0.63558000  0.71166000  1.0
  C  C117  1  0.11518000  0.60349000  0.66867000  1.0
  C  C118  1  0.52712000  0.06414000  0.23844000  1.0
  C  C119  1  0.44978000  0.01571000  0.20645000  1.0
  C  C120  1  0.42610000  0.95269000  0.24561000  1.0
  C  C121  1  0.49856000  0.98366000  0.26912000  1.0
  C  C122  1  0.58386000  0.13689000  0.17203000  1.0
  C  C123  1  0.49652000  0.08036000  0.14956000  1.0
  C  C124  1  0.65322000  0.52373000  0.21675000  1.0
  C  C125  1  0.64804000  0.59180000  0.22960000  1.0
  C  C126  1  0.60022000  0.57971000  0.28485000  1.0
  C  C127  1  0.60930000  0.51166000  0.27284000  1.0
  C  C128  1  0.70954000  0.53668000  0.16260000  1.0
  C  C129  1  0.70612000  0.60491000  0.17561000  1.0
  C  C130  1  0.87640000  0.04303000  0.71659000  1.0
  C  C131  1  0.96774000  0.05383000  0.72669000  1.0
  C  C132  1  0.98248000  0.13295000  0.69509000  1.0
  C  C133  1  0.89038000  0.12358000  0.68542000  1.0
  C  C134  1  0.86364000  0.96374000  0.74862000  1.0
  C  C135  1  0.95502000  0.97586000  0.75934000  1.0
  C  C136  1  0.21636000  0.02095000  0.74607000  1.0
  C  C137  1  0.25056000  0.03007000  0.71455000  1.0
  C  C138  1  0.21776000  0.14277000  0.73487000  1.0
  C  C139  1  0.17834000  0.13258000  0.76566000  1.0
  C  C140  1  0.23626000  0.90744000  0.72480000  1.0
  C  C141  1  0.26986000  0.91560000  0.69300000  1.0
  C  C142  1  0.39988000  0.54187000  0.23615000  1.0
  C  C143  1  0.43370000  0.54403000  0.20327000  1.0
  C  C144  1  0.44876000  0.65905000  0.22339000  1.0
  C  C145  1  0.41526000  0.65750000  0.25656000  1.0
  C  C146  1  0.39124000  0.42600000  0.21626000  1.0
  C  C147  1  0.42580000  0.42810000  0.18326000  1.0
  C  C148  1  0.59260000  0.04094000  0.18818000  1.0
  C  C149  1  0.67836000  0.05463000  0.22195000  1.0
  C  C150  1  0.73530000  0.95372000  0.19070000  1.0
  C  C151  1  0.66454000  0.93906000  0.16442000  1.0
  C  C152  1  0.48704000  0.17130000  0.24554000  1.0
  C  C153  1  0.58554000  0.16815000  0.27107000  1.0
  C  C154  1  0.01464000  0.59633000  0.71247000  1.0
  C  C155  1  0.91502000  0.55552000  0.69182000  1.0
  C  C156  1  0.83610000  0.64452000  0.72572000  1.0
  C  C157  1  0.91494000  0.67674000  0.74456000  1.0
  C  C158  1  0.12246000  0.45492000  0.66780000  1.0
  C  C159  1  0.00700000  0.43330000  0.65318000  1.0
  C  C160  1  0.39244000  0.74176000  0.46642000  1.0
  C  C161  1  0.47426000  0.76243000  0.48479000  1.0
  C  C162  1  0.54078000  0.77433000  0.43197000  1.0
  C  C163  1  0.45690000  0.75692000  0.41440000  1.0
  C  C164  1  0.31852000  0.74319000  0.51919000  1.0
  C  C165  1  0.39972000  0.76428000  0.53810000  1.0
  C  C166  1  0.66088000  0.30966000  0.47964000  1.0
  C  C167  1  0.75142000  0.33162000  0.47796000  1.0
  C  C168  1  0.71656000  0.36280000  0.42704000  1.0
  C  C169  1  0.62756000  0.33680000  0.42708000  1.0
  C  C170  1  0.69824000  0.27638000  0.53008000  1.0
  C  C171  1  0.78956000  0.29529000  0.52709000  1.0
  C  C172  1  0.91088000  0.81315000  0.96467000  1.0
  C  C173  1  0.89324000  0.75220000  0.97090000  1.0
  C  C174  1  0.94946000  0.69962000  0.91446000  1.0
  C  C175  1  0.96260000  0.76033000  0.90745000  1.0
  C  C176  1  0.83704000  0.86496000  0.01778000  1.0
  C  C177  1  0.81666000  0.80390000  0.02326000  1.0
  C  C178  1  0.15240000  0.28224000  0.98214000  1.0
  C  C179  1  0.23302000  0.31962000  0.98378000  1.0
  C  C180  1  0.21770000  0.31635000  0.92425000  1.0
  C  C181  1  0.13778000  0.27767000  0.92187000  1.0
  C  C182  1  0.17826000  0.27811000  0.04081000  1.0
  C  C183  1  0.26150000  0.31232000  0.04128000  1.0
  N  N184  1  0.32596000  0.50706000  0.46232000  1.0
  N  N185  1  0.40758000  0.59424000  0.51896000  1.0
  N  N186  1  0.54682000  0.58276000  0.48774000  1.0
  N  N187  1  0.46444000  0.49660000  0.43098000  1.0
  N  N188  1  0.78120000  0.05583000  0.48443000  1.0
  N  N189  1  0.63342000  0.09040000  0.52718000  1.0
  N  N190  1  0.53662000  0.03731000  0.47883000  1.0
  N  N191  1  0.68492000  0.00446000  0.43684000  1.0
  N  N192  1  0.09034000  0.50898000  0.99446000  1.0
  N  N193  1  0.97372000  0.48099000  0.93745000  1.0
  N  N194  1  0.85830000  0.53910000  0.97490000  1.0
  N  N195  1  0.97696000  0.56751000  0.03069000  1.0
  N  N196  1  0.05912000  0.02975000  0.97071000  1.0
  N  N197  1  0.18184000  0.03830000  0.92004000  1.0
  N  N198  1  0.28516000  0.09544000  0.96390000  1.0
  N  N199  1  0.16528000  0.08310000  0.01498000  1.0
  N  N200  1  0.97570000  0.44354000  0.71806000  1.0
  N  N201  1  0.09128000  0.51855000  0.77689000  1.0
  N  N202  1  0.14902000  0.60458000  0.74520000  1.0
  N  N203  1  0.04458000  0.53857000  0.66293000  1.0
  N  N204  1  0.40576000  0.96673000  0.21489000  1.0
  N  N205  1  0.54444000  0.03913000  0.26641000  1.0
  N  N206  1  0.60784000  0.13877000  0.21329000  1.0
  N  N207  1  0.44286000  0.02805000  0.16719000  1.0
  N  N208  1  0.62070000  0.61803000  0.26321000  1.0
  N  N209  1  0.63500000  0.48525000  0.23873000  1.0
  N  N210  1  0.68320000  0.49779000  0.18339000  1.0
  N  N211  1  0.67476000  0.63072000  0.20890000  1.0
  N  N212  1  0.01868000  0.09790000  0.71552000  1.0
  N  N213  1  0.83942000  0.07836000  0.69628000  1.0
  N  N214  1  0.82624000  0.99800000  0.72766000  1.0
  N  N215  1  0.00424000  0.02051000  0.74783000  1.0
  N  N216  1  0.25206000  0.09120000  0.70992000  1.0
  N  N217  1  0.18134000  0.07191000  0.77061000  1.0
  N  N218  1  0.21152000  0.96023000  0.75055000  1.0
  N  N219  1  0.27812000  0.97719000  0.68871000  1.0
  N  N220  1  0.45664000  0.60240000  0.19750000  1.0
  N  N221  1  0.39046000  0.59866000  0.26196000  1.0
  N  N222  1  0.37918000  0.48292000  0.24190000  1.0
  N  N223  1  0.44562000  0.48758000  0.17788000  1.0
  N  N224  1  0.74060000  0.00858000  0.21834000  1.0
  N  N225  1  0.59702000  0.98219000  0.16295000  1.0
  N  N226  1  0.47588000  0.11808000  0.20690000  1.0
  N  N227  1  0.66724000  0.11472000  0.25844000  1.0
  N  N228  1  0.83668000  0.58590000  0.70086000  1.0
  N  N229  1  0.00104000  0.65365000  0.73757000  1.0
  N  N230  1  0.14204000  0.52817000  0.69563000  1.0
  N  N231  1  0.92082000  0.48177000  0.66565000  1.0
  N  N232  1  0.54740000  0.77693000  0.46695000  1.0
  N  N233  1  0.38634000  0.73936000  0.43208000  1.0
  N  N234  1  0.31698000  0.73204000  0.48382000  1.0
  N  N235  1  0.47668000  0.77254000  0.52044000  1.0
  N  N236  1  0.77668000  0.35877000  0.45215000  1.0
  N  N237  1  0.60088000  0.31183000  0.45383000  1.0
  N  N238  1  0.63616000  0.28306000  0.50592000  1.0
  N  N239  1  0.81376000  0.32309000  0.50131000  1.0
  N  N240  1  0.91474000  0.69691000  0.94603000  1.0
  N  N241  1  0.94480000  0.81569000  0.93309000  1.0
  N  N242  1  0.88350000  0.86820000  0.98844000  1.0
  N  N243  1  0.84642000  0.74902000  0.99998000  1.0
  N  N244  1  0.26338000  0.33624000  0.95508000  1.0
  N  N245  1  0.10576000  0.26209000  0.95109000  1.0
  N  N246  1  0.12582000  0.26335000  0.01101000  1.0
  N  N247  1  0.28500000  0.33333333  0.01300000  1.0
  O  O248  1  0.38586000  0.85846000  0.65532000  1.0
  O  O249  1  0.24650000  0.80507000  0.65729000  1.0
  O  O250  1  0.38188000  0.72057000  0.64029000  1.0
  O  O251  1  0.15700000  0.73613000  0.59815000  1.0
  O  O252  1  0.47340000  0.77403000  0.59437000  1.0
  O  O253  1  0.32018000  0.78354000  0.59184000  1.0
  O  O254  1  0.17298000  0.61806000  0.54566000  1.0
  O  O255  1  0.30326000  0.65128000  0.57976000  1.0
  O  O256  1  0.08832000  0.62090000  0.61194000  1.0
  O  O257  1  0.21316000  0.67264000  0.64602000  1.0
  O  O258  1  0.67468000  0.93693000  0.36879000  1.0
  O  O259  1  0.51752000  0.92063000  0.37037000  1.0
  O  O260  1  0.61470000  0.83028000  0.31944000  1.0
  O  O261  1  0.36718000  0.85850000  0.33680000  1.0
  O  O262  1  0.61740000  0.95765000  0.30507000  1.0
  O  O263  1  0.48272000  0.89770000  0.29700000  1.0
  O  O264  1  0.33388000  0.72127000  0.30551000  1.0
  O  O265  1  0.46616000  0.76643000  0.28893000  1.0
  O  O266  1  0.34550000  0.77652000  0.37644000  1.0
  O  O267  1  0.49794000  0.78968000  0.36224000  1.0
  O  O268  1  0.69424000  0.49106000  0.39520000  1.0
  O  O269  1  0.56116000  0.44511000  0.36861000  1.0
  O  O270  1  0.72114000  0.38603000  0.33499000  1.0
  O  O271  1  0.47162000  0.34415000  0.32843000  1.0
  O  O272  1  0.67690000  0.50511000  0.32591000  1.0
  O  O273  1  0.58630000  0.41518000  0.29548000  1.0
  O  O274  1  0.53522000  0.22021000  0.32751000  1.0
  O  O275  1  0.61678000  0.28226000  0.29662000  1.0
  O  O276  1  0.48634000  0.31140000  0.39290000  1.0
  O  O277  1  0.61898000  0.32195000  0.36665000  1.0
  O  O278  1  0.76006000  0.15483000  0.65805000  1.0
  O  O279  1  0.90040000  0.20613000  0.65457000  1.0
  O  O280  1  0.76000000  0.27448000  0.64106000  1.0
  O  O281  1  0.97946000  0.21847000  0.59573000  1.0
  O  O282  1  0.66290000  0.17103000  0.59757000  1.0
  O  O283  1  0.81670000  0.16366000  0.58916000  1.0
  O  O284  1  0.94160000  0.27150000  0.54046000  1.0
  O  O285  1  0.82970000  0.28733000  0.58293000  1.0
  O  O286  1  0.03212000  0.34749000  0.60191000  1.0
  O  O287  1  0.92736000  0.33014000  0.64378000  1.0
  O  O288  1  0.94042000  0.65254000  0.09342000  1.0
  O  O289  1  0.78866000  0.65999000  0.07899000  1.0
  O  O290  1  0.86296000  0.75977000  0.13553000  1.0
  O  O291  1  0.63256000  0.72573000  0.09303000  1.0
  O  O292  1  0.84040000  0.63732000  0.15090000  1.0
  O  O293  1  0.70906000  0.69407000  0.14773000  1.0
  O  O294  1  0.61104000  0.86442000  0.11018000  1.0
  O  O295  1  0.70942000  0.82526000  0.14572000  1.0
  O  O296  1  0.66814000  0.79114000  0.04376000  1.0
  O  O297  1  0.79258000  0.78843000  0.07991000  1.0
  O  O298  1  0.16832000  0.95647000  0.85527000  1.0
  O  O299  1  0.01306000  0.93712000  0.86060000  1.0
  O  O300  1  0.11320000  0.84370000  0.81304000  1.0
  O  O301  1  0.86754000  0.85813000  0.83779000  1.0
  O  O302  1  0.07978000  0.96391000  0.79563000  1.0
  O  O303  1  0.96216000  0.88905000  0.78749000  1.0
  O  O304  1  0.82022000  0.74560000  0.78812000  1.0
  O  O305  1  0.97508000  0.76443000  0.79179000  1.0
  O  O306  1  0.89460000  0.73773000  0.85131000  1.0
  O  O307  1  0.01288000  0.81304000  0.86462000  1.0
  O  O308  1  0.18354000  0.44854000  0.89216000  1.0
  O  O309  1  0.05342000  0.38520000  0.87326000  1.0
  O  O310  1  0.21338000  0.34873000  0.83277000  1.0
  O  O311  1  0.97548000  0.27961000  0.82769000  1.0
  O  O312  1  0.14072000  0.46387000  0.82593000  1.0
  O  O313  1  0.05812000  0.36800000  0.79980000  1.0
  O  O314  1  0.06890000  0.16100000  0.81220000  1.0
  O  O315  1  0.12926000  0.24440000  0.79036000  1.0
  O  O316  1  0.01030000  0.22871000  0.88337000  1.0
  O  O317  1  0.13596000  0.26477000  0.86085000  1.0
  O  O318  1  0.35294000  0.08851000  0.12329000  1.0
  O  O319  1  0.45392000  0.17585000  0.13425000  1.0
  O  O320  1  0.28250000  0.21898000  0.13904000  1.0
  O  O321  1  0.49352000  0.24753000  0.09173000  1.0
  O  O322  1  0.21242000  0.12506000  0.08528000  1.0
  O  O323  1  0.35332000  0.16293000  0.07223000  1.0
  O  O324  1  0.41690000  0.32258000  0.05664000  1.0
  O  O325  1  0.31468000  0.29123000  0.09429000  1.0
  O  O326  1  0.47370000  0.38141000  0.12477000  1.0
  O  O327  1  0.41700000  0.30969000  0.15547000  1.0
