# generated using pymatgen
data_InH2C10(NO2)4
_symmetry_space_group_name_H-M   'P 1'
_cell_length_a   8.61573333
_cell_length_b   18.37905000
_cell_length_c   37.29190000
_cell_angle_alpha   90.00000000
_cell_angle_beta   89.99900000
_cell_angle_gamma   90.00000000
_symmetry_Int_Tables_number   1
_chemical_formula_structural   InH2C10(NO2)4
_chemical_formula_sum   'In8 H16 C80 N32 O64'
_cell_volume   5905.13483572
_cell_formula_units_Z   8
loop_
 _symmetry_equiv_pos_site_id
 _symmetry_equiv_pos_as_xyz
  1  'x, y, z'
loop_
 _atom_site_type_symbol
 _atom_site_label
 _atom_site_symmetry_multiplicity
 _atom_site_fract_x
 _atom_site_fract_y
 _atom_site_fract_z
 _atom_site_occupancy
  In  In0  1  0.30378000  0.06056000  0.63285000  1.0
  In  In1  1  0.71047000  0.03100000  0.40590000  1.0
  In  In2  1  0.70837000  0.56334000  0.61846000  1.0
  In  In3  1  0.29121000  0.53610000  0.39238000  1.0
  In  In4  1  0.94890000  0.99004000  0.12852000  1.0
  In  In5  1  0.28150000  0.02874000  0.91716000  1.0
  In  In6  1  0.22449000  0.48896000  0.10907000  1.0
  In  In7  1  0.86181000  0.52876000  0.89465000  1.0
  H  H8  1  0.40512000  0.04154000  0.78958000  1.0
  H  H9  1  0.74931000  0.03108000  0.25036000  1.0
  H  H10  1  0.72727000  0.54834000  0.77311000  1.0
  H  H11  1  0.38568000  0.50408000  0.23573000  1.0
  H  H12  1  0.61170000  0.29440000  0.61655000  1.0
  H  H13  1  0.64408000  0.30668000  0.39520000  1.0
  H  H14  1  0.63423000  0.75690000  0.41256000  1.0
  H  H15  1  0.40526000  0.79462000  0.63097000  1.0
  H  H16  1  0.00293000  0.24818000  0.12554000  1.0
  H  H17  1  0.22193000  0.30512000  0.90485000  1.0
  H  H18  1  0.22585000  0.75448000  0.89974000  1.0
  H  H19  1  0.18601000  0.74872000  0.12951000  1.0
  H  H20  1  0.11169000  0.05420000  0.50426000  1.0
  H  H21  1  0.09866000  0.54632000  0.51951000  1.0
  H  H22  1  0.52643000  0.02674000  0.03762000  1.0
  H  H23  1  0.63232000  0.52404000  0.01667000  1.0
  C  C24  1  0.47529000  0.95020000  0.63786000  1.0
  C  C25  1  0.36914000  0.19212000  0.64217000  1.0
  C  C26  1  0.10606000  0.05216000  0.58373000  1.0
  C  C27  1  0.30516000  0.04188000  0.71369000  1.0
  C  C28  1  0.61258000  0.90892000  0.38608000  1.0
  C  C29  1  0.56795000  0.14772000  0.39805000  1.0
  C  C30  1  0.80694000  0.03268000  0.46894000  1.0
  C  C31  1  0.79932000  0.03974000  0.32829000  1.0
  C  C32  1  0.67074000  0.69390000  0.63462000  1.0
  C  C33  1  0.55932000  0.44990000  0.63271000  1.0
  C  C34  1  0.79572000  0.56436000  0.55480000  1.0
  C  C35  1  0.78521000  0.54868000  0.69616000  1.0
  C  C36  1  0.42101000  0.65288000  0.37596000  1.0
  C  C37  1  0.36375000  0.40440000  0.39086000  1.0
  C  C38  1  0.09785000  0.56052000  0.44085000  1.0
  C  C39  1  0.29429000  0.50824000  0.31225000  1.0
  C  C40  1  0.94767000  0.85884000  0.13857000  1.0
  C  C41  1  0.10511000  0.09970000  0.13381000  1.0
  C  C42  1  0.83848000  0.00378000  0.06774000  1.0
  C  C43  1  0.02405000  0.99300000  0.20673000  1.0
  C  C44  1  0.15149000  0.90784000  0.91841000  1.0
  C  C45  1  0.14614000  0.14844000  0.91448000  1.0
  C  C46  1  0.50655000  0.02900000  0.95916000  1.0
  C  C47  1  0.15456000  0.02234000  0.84297000  1.0
  C  C48  1  0.08073000  0.59978000  0.12188000  1.0
  C  C49  1  0.24096000  0.35824000  0.11811000  1.0
  C  C50  1  0.32240000  0.50746000  0.04816000  1.0
  C  C51  1  0.12985000  0.47140000  0.18516000  1.0
  C  C52  1  0.95055000  0.65626000  0.89554000  1.0
  C  C53  1  0.94700000  0.40076000  0.89213000  1.0
  C  C54  1  0.64493000  0.52706000  0.93824000  1.0
  C  C55  1  0.99330000  0.52634000  0.81999000  1.0
  C  C56  1  0.15776000  0.02304000  0.80370000  1.0
  C  C57  1  0.28542000  0.03302000  0.78181000  1.0
  C  C58  1  0.22289000  0.03134000  0.74767000  1.0
  C  C59  1  0.00009667  0.00612000  0.24518000  1.0
  C  C60  1  0.86311000  0.02398000  0.26216000  1.0
  C  C61  1  0.90465000  0.02794000  0.29797000  1.0
  C  C62  1  0.97875000  0.52898000  0.78091000  1.0
  C  C63  1  0.84265000  0.53990000  0.76237000  1.0
  C  C64  1  0.88796000  0.53816000  0.72699000  1.0
  C  C65  1  0.13947000  0.47690000  0.22411000  1.0
  C  C66  1  0.26836000  0.49312000  0.24460000  1.0
  C  C67  1  0.21025000  0.49316000  0.27913000  1.0
  C  C68  1  0.39262000  0.27116000  0.64583000  1.0
  C  C69  1  0.51216000  0.31264000  0.63181000  1.0
  C  C70  1  0.47237000  0.38320000  0.64119000  1.0
  C  C71  1  0.47616000  0.21434000  0.39375000  1.0
  C  C72  1  0.52663000  0.28620000  0.39320000  1.0
  C  C73  1  0.38925000  0.32536000  0.39091000  1.0
  C  C74  1  0.55279000  0.83916000  0.37301000  1.0
  C  C75  1  0.57100000  0.77098000  0.38845000  1.0
  C  C76  1  0.47403000  0.72714000  0.36812000  1.0
  C  C77  1  0.57248000  0.88466000  0.64028000  1.0
  C  C78  1  0.52173000  0.81366000  0.63648000  1.0
  C  C79  1  0.65561000  0.77296000  0.63983000  1.0
  C  C80  1  0.19166000  0.16754000  0.13222000  1.0
  C  C81  1  0.12499000  0.23470000  0.12754000  1.0
  C  C82  1  0.25014000  0.28028000  0.12461000  1.0
  C  C83  1  0.96856000  0.32244000  0.89718000  1.0
  C  C84  1  0.10438000  0.28450000  0.90366000  1.0
  C  C85  1  0.05302000  0.21370000  0.90838000  1.0
  C  C86  1  0.97256000  0.73316000  0.90422000  1.0
  C  C87  1  0.10906000  0.77260000  0.90560000  1.0
  C  C88  1  0.05918000  0.84146000  0.91544000  1.0
  C  C89  1  0.94101000  0.77962000  0.13879000  1.0
  C  C90  1  0.06505000  0.73428000  0.13291000  1.0
  C  C91  1  0.99754000  0.66680000  0.12990000  1.0
  C  C92  1  0.85694000  0.03528000  0.50645000  1.0
  C  C93  1  0.00566000  0.04628000  0.51933000  1.0
  C  C94  1  0.98620000  0.04458000  0.55614000  1.0
  C  C95  1  0.84541000  0.56856000  0.51743000  1.0
  C  C96  1  0.99440000  0.55926000  0.50462000  1.0
  C  C97  1  0.97766000  0.56888000  0.46816000  1.0
  C  C98  1  0.78042000  0.01234000  0.03115000  1.0
  C  C99  1  0.62861000  0.02284000  0.02083000  1.0
  C  C100  1  0.63751000  0.02426000  0.98387000  1.0
  C  C101  1  0.37658000  0.51604000  0.01137000  1.0
  C  C102  1  0.52836000  0.52270000  0.00037000  1.0
  C  C103  1  0.51627000  0.52430000  0.96354000  1.0
  N  N104  1  0.06849000  0.02082000  0.74949000  1.0
  N  N105  1  0.02882000  0.01576000  0.78363000  1.0
  N  N106  1  0.05685000  0.01346000  0.30173000  1.0
  N  N107  1  0.11507000  0.00034000  0.26954000  1.0
  N  N108  1  0.04214000  0.52674000  0.72475000  1.0
  N  N109  1  0.09774000  0.52110000  0.75778000  1.0
  N  N110  1  0.05754000  0.47798000  0.27884000  1.0
  N  N111  1  0.01443000  0.46788000  0.24527000  1.0
  N  N112  1  0.33797000  0.38302000  0.65957000  1.0
  N  N113  1  0.28971000  0.31488000  0.66245000  1.0
  N  N114  1  0.26797000  0.27924000  0.38994000  1.0
  N  N115  1  0.32054000  0.21198000  0.39182000  1.0
  N  N116  1  0.40568000  0.76720000  0.34234000  1.0
  N  N117  1  0.45339000  0.83518000  0.34531000  1.0
  N  N118  1  0.77760000  0.81752000  0.64534000  1.0
  N  N119  1  0.72696000  0.88562000  0.64564000  1.0
  N  N120  1  0.38346000  0.24246000  0.12762000  1.0
  N  N121  1  0.34748000  0.17292000  0.13203000  1.0
  N  N122  1  0.89786000  0.21058000  0.90498000  1.0
  N  N123  1  0.84654000  0.27676000  0.89806000  1.0
  N  N124  1  0.90428000  0.84198000  0.91971000  1.0
  N  N125  1  0.85151000  0.77608000  0.91274000  1.0
  N  N126  1  0.84271000  0.67176000  0.13402000  1.0
  N  N127  1  0.80797000  0.74110000  0.13939000  1.0
  N  N128  1  0.83588000  0.03330000  0.56423000  1.0
  N  N129  1  0.75709000  0.02770000  0.53395000  1.0
  N  N130  1  0.82832000  0.58292000  0.46009000  1.0
  N  N131  1  0.74753000  0.58298000  0.49023000  1.0
  N  N132  1  0.78536000  0.01548000  0.97314000  1.0
  N  N133  1  0.87277000  0.00822000  0.00208000  1.0
  N  N134  1  0.36667000  0.51932000  0.95348000  1.0
  N  N135  1  0.28110000  0.51408000  0.98279000  1.0
  O  O136  1  0.44381000  0.14958000  0.62019000  1.0
  O  O137  1  0.26021000  0.15728000  0.65894000  1.0
  O  O138  1  0.25361000  0.06024000  0.57804000  1.0
  O  O139  1  0.07558000  0.04962000  0.61761000  1.0
  O  O140  1  0.22314000  0.04390000  0.68385000  1.0
  O  O141  1  0.45622000  0.05188000  0.71322000  1.0
  O  O142  1  0.52679000  0.01654000  0.63616000  1.0
  O  O143  1  0.32542000  0.94874000  0.63689000  1.0
  O  O144  1  0.50537000  0.08662000  0.40790000  1.0
  O  O145  1  0.71621000  0.14100000  0.39206000  1.0
  O  O146  1  0.66413000  0.02122000  0.45967000  1.0
  O  O147  1  0.89584000  0.04264000  0.44120000  1.0
  O  O148  1  0.85197000  0.03348000  0.36149000  1.0
  O  O149  1  0.65095000  0.05092000  0.32209000  1.0
  O  O150  1  0.54138000  0.97008000  0.38085000  1.0
  O  O151  1  0.74271000  0.91852000  0.40292000  1.0
  O  O152  1  0.50198000  0.51530000  0.63468000  1.0
  O  O153  1  0.70373000  0.45098000  0.62286000  1.0
  O  O154  1  0.65346000  0.57374000  0.56498000  1.0
  O  O155  1  0.88748000  0.55300000  0.58179000  1.0
  O  O156  1  0.84178000  0.54634000  0.66329000  1.0
  O  O157  1  0.63730000  0.56250000  0.70169000  1.0
  O  O158  1  0.55845000  0.65078000  0.62473000  1.0
  O  O159  1  0.80276000  0.65986000  0.63623000  1.0
  O  O160  1  0.46643000  0.45612000  0.39489000  1.0
  O  O161  1  0.22527000  0.43048000  0.38769000  1.0
  O  O162  1  0.24265000  0.54558000  0.44691000  1.0
  O  O163  1  0.06828000  0.56248000  0.40695000  1.0
  O  O164  1  0.21193000  0.51872000  0.34156000  1.0
  O  O165  1  0.44669000  0.51150000  0.31275000  1.0
  O  O166  1  0.47611000  0.60862000  0.40022000  1.0
  O  O167  1  0.29673000  0.62720000  0.36121000  1.0
  O  O168  1  0.16574000  0.03568000  0.12750000  1.0
  O  O169  1  0.95484000  0.09824000  0.13836000  1.0
  O  O170  1  0.98058000  0.98486000  0.07439000  1.0
  O  O171  1  0.75783000  0.01424000  0.09697000  1.0
  O  O172  1  0.91130000  0.00312000  0.18304000  1.0
  O  O173  1  0.16263000  0.97204000  0.19616000  1.0
  O  O174  1  0.07277000  0.89552000  0.13026000  1.0
  O  O175  1  0.82507000  0.89980000  0.14237000  1.0
  O  O176  1  0.08938000  0.09012000  0.92898000  1.0
  O  O177  1  0.28408000  0.13734000  0.90149000  1.0
  O  O178  1  0.36303000  0.03240000  0.96918000  1.0
  O  O179  1  0.51921000  0.02616000  0.92456000  1.0
  O  O180  1  0.28392000  0.02746000  0.86192000  1.0
  O  O181  1  0.01926000  0.01692000  0.85910000  1.0
  O  O182  1  0.10153000  0.96540000  0.93489000  1.0
  O  O183  1  0.27923000  0.92052000  0.90095000  1.0
  O  O184  1  0.11216000  0.39156000  0.10906000  1.0
  O  O185  1  0.35946000  0.40194000  0.12190000  1.0
  O  O186  1  0.18058000  0.48842000  0.05558000  1.0
  O  O187  1  0.40886000  0.51596000  0.07671000  1.0
  O  O188  1  0.24765000  0.49004000  0.16424000  1.0
  O  O189  1  0.99669000  0.45060000  0.17128000  1.0
  O  O190  1  0.01300000  0.53922000  0.11186000  1.0
  O  O191  1  0.23182000  0.59464000  0.12440000  1.0
  O  O192  1  0.03066000  0.45196000  0.90706000  1.0
  O  O193  1  0.82100000  0.42590000  0.87757000  1.0
  O  O194  1  0.79027000  0.52674000  0.94740000  1.0
  O  O195  1  0.62667000  0.52816000  0.90373000  1.0
  O  O196  1  0.86729000  0.53222000  0.83987000  1.0
  O  O197  1  0.13050000  0.51770000  0.83482000  1.0
  O  O198  1  0.03495000  0.60264000  0.90799000  1.0
  O  O199  1  0.82144000  0.63388000  0.88135000  1.0
