# generated using pymatgen
data_CdH16C25(NO4)2
_symmetry_space_group_name_H-M   'P 1'
_cell_length_a   17.88055000
_cell_length_b   55.91860621
_cell_length_c   56.52775205
_cell_angle_alpha   62.47736546
_cell_angle_beta   87.35281447
_cell_angle_gamma   87.33335296
_symmetry_Int_Tables_number   1
_chemical_formula_structural   CdH16C25(NO4)2
_chemical_formula_sum   'Cd6 H96 C150 N12 O48'
_cell_volume   50049.44418005
_cell_formula_units_Z   6
loop_
 _symmetry_equiv_pos_site_id
 _symmetry_equiv_pos_as_xyz
  1  'x, y, z'
loop_
 _atom_site_type_symbol
 _atom_site_label
 _atom_site_symmetry_multiplicity
 _atom_site_fract_x
 _atom_site_fract_y
 _atom_site_fract_z
 _atom_site_occupancy
  Cd  Cd0  1  0.74936000  0.52008000  0.92422000  1.0
  Cd  Cd1  1  0.24044000  0.52895000  0.54023000  1.0
  Cd  Cd2  1  0.76230000  0.94864000  0.52508000  1.0
  Cd  Cd3  1  0.75763000  0.47412000  0.47813000  1.0
  Cd  Cd4  1  0.22835000  0.45713000  0.04346000  1.0
  Cd  Cd5  1  0.24348000  0.06696000  0.45188000  1.0
  H  H6  1  0.85364000  0.60633000  0.68068000  1.0
  H  H7  1  0.00408000  0.60710000  0.68998000  1.0
  H  H8  1  0.89841000  0.62097000  0.61764000  1.0
  H  H9  1  0.02436000  0.70183000  0.63475000  1.0
  H  H10  1  0.94949000  0.75317000  0.64846000  1.0
  H  H11  1  0.88489000  0.79413000  0.61552000  1.0
  H  H12  1  0.74360000  0.66843000  0.71271000  1.0
  H  H13  1  0.91240000  0.66775000  0.74663000  1.0
  H  H14  1  0.94389000  0.63203000  0.79120000  1.0
  H  H15  1  0.76157000  0.58532000  0.78851000  1.0
  H  H16  1  0.73190000  0.62080000  0.74392000  1.0
  H  H17  1  0.99424000  0.56655000  0.98115000  1.0
  H  H18  1  0.76331000  0.49998000  0.84715000  1.0
  H  H19  1  0.87198000  0.48407000  0.82962000  1.0
  H  H20  1  0.97969000  0.51352000  0.80849000  1.0
  H  H21  1  0.97951000  0.55897000  0.80502000  1.0
  H  H22  1  0.93119000  0.58734000  0.82643000  1.0
  H  H23  1  0.83656000  0.58745000  0.83587000  1.0
  H  H24  1  0.72896000  0.56992000  0.83748000  1.0
  H  H25  1  0.68903000  0.53899000  0.84392000  1.0
  H  H26  1  0.12146000  0.59387000  0.67437000  1.0
  H  H27  1  0.54339000  0.52301000  0.97368000  1.0
  H  H28  1  0.93496000  0.45732000  0.96904000  1.0
  H  H29  1  0.19823000  0.59299000  0.63866000  1.0
  H  H30  1  0.14681000  0.56891000  0.63494000  1.0
  H  H31  1  0.20731000  0.55357000  0.60674000  1.0
  H  H32  1  0.01459000  0.60677000  0.60226000  1.0
  H  H33  1  0.92415000  0.71487000  0.59854000  1.0
  H  H34  1  0.85943000  0.75569000  0.56556000  1.0
  H  H35  1  0.99891000  0.42698000  0.57975000  1.0
  H  H36  1  0.49885000  0.42628000  0.57931000  1.0
  H  H37  1  0.78653000  0.80971000  0.57752000  1.0
  H  H38  1  0.78344000  0.85644000  0.57386000  1.0
  H  H39  1  0.17403000  0.64405000  0.60048000  1.0
  H  H40  1  0.10708000  0.55906000  0.60204000  1.0
  H  H41  1  0.55603000  0.98914000  0.54579000  1.0
  H  H42  1  0.97505000  0.79927000  0.55004000  1.0
  H  H43  1  0.80672000  0.80047000  0.55133000  1.0
  H  H44  1  0.75074000  0.85178000  0.54642000  1.0
  H  H45  1  0.19367000  0.60290000  0.53929000  1.0
  H  H46  1  0.20109000  0.67174000  0.55263000  1.0
  H  H47  1  0.95278000  0.99596000  0.53484000  1.0
  H  H48  1  0.06358000  0.02396000  0.51756000  1.0
  H  H49  1  0.44081000  0.01728000  0.53307000  1.0
  H  H50  1  0.91936000  0.89295000  0.53423000  1.0
  H  H51  1  0.04373000  0.87978000  0.52425000  1.0
  H  H52  1  0.07115000  0.83329000  0.53133000  1.0
  H  H53  1  0.21051500  0.65098500  0.52234000  1.0
  H  H54  1  0.05124000  0.54847000  0.48029000  1.0
  H  H55  1  0.43790000  0.54702000  0.47900000  1.0
  H  H56  1  0.05401000  0.41684000  0.47813000  1.0
  H  H57  1  0.92062000  0.42799000  0.47099000  1.0
  H  H58  1  0.49236000  0.39824000  0.99606000  1.0
  H  H59  1  0.12675000  0.34226000  0.36931000  1.0
  H  H60  1  0.08662000  0.41244000  0.32538000  1.0
  H  H61  1  0.01414000  0.44195000  0.34001000  1.0
  H  H62  1  0.94805000  0.37225000  0.41260000  1.0
  H  H63  1  0.02149000  0.34291000  0.39804000  1.0
  H  H64  1  0.91800000  0.36892000  0.27096000  1.0
  H  H65  1  0.02784000  0.33308000  0.26572000  1.0
  H  H66  1  0.02603000  0.41939000  0.23508000  1.0
  H  H67  1  0.10795000  0.33697000  0.22790000  1.0
  H  H68  1  0.10315000  0.42361000  0.19646000  1.0
  H  H69  1  0.91789000  0.28541000  0.34254000  1.0
  H  H70  1  0.02453000  0.25013000  0.39696000  1.0
  H  H71  1  0.10794000  0.21180000  0.40234000  1.0
  H  H72  1  0.11314000  0.24077000  0.31707000  1.0
  H  H73  1  0.02904000  0.27882000  0.31190000  1.0
  H  H74  1  0.94055000  0.53527000  0.46530000  1.0
  H  H75  1  0.00514000  0.99697000  0.41821000  1.0
  H  H76  1  0.42765000  0.51266000  0.00139000  1.0
  H  H77  1  0.55452000  0.53314000  0.46332000  1.0
  H  H78  1  0.52330000  0.00810000  0.42264000  1.0
  H  H79  1  0.04328000  0.44214000  0.99810000  1.0
  H  H80  1  0.13500000  0.41314000  0.44330000  1.0
  H  H81  1  0.08211000  0.41871000  0.40200000  1.0
  H  H82  1  0.93340000  0.44876000  0.37154000  1.0
  H  H83  1  0.87590000  0.42038000  0.39168000  1.0
  H  H84  1  0.82917000  0.45070000  0.40493000  1.0
  H  H85  1  0.80464000  0.42150000  0.43588000  1.0
  H  H86  1  0.25483000  0.46347000  0.11538000  1.0
  H  H87  1  0.34703000  0.46548000  0.14473000  1.0
  H  H88  1  0.35531000  0.42990000  0.19141000  1.0
  H  H89  1  0.26887000  0.39232000  0.20921000  1.0
  H  H90  1  0.18990000  0.36341000  0.19005000  1.0
  H  H91  1  0.11383000  0.38324000  0.17115000  1.0
  H  H92  1  0.15228000  0.40312000  0.12900000  1.0
  H  H93  1  0.09333000  0.42852000  0.13269000  1.0
  H  H94  1  0.08546000  0.11023000  0.42713000  1.0
  H  H95  1  0.96539000  0.11649000  0.40624000  1.0
  H  H96  1  0.93618000  0.15805000  0.36501000  1.0
  H  H97  1  0.02562000  0.19440000  0.34556000  1.0
  H  H98  1  0.18530000  0.20039000  0.34455000  1.0
  H  H99  1  0.20685000  0.19546000  0.37723000  1.0
  H  H100  1  0.25009000  0.15234000  0.39335000  1.0
  H  H101  1  0.20949000  0.15425000  0.42248000  1.0
  C  C102  1  0.07788000  0.59995000  0.63681000  1.0
  C  C103  1  0.01362000  0.60727000  0.62119000  1.0
  C  C104  1  0.94720000  0.61527000  0.62995000  1.0
  C  C105  1  0.93333000  0.68667000  0.66014000  1.0
  C  C106  1  0.94163000  0.73121000  0.62580000  1.0
  C  C107  1  0.92938000  0.75360000  0.63048000  1.0
  C  C108  1  0.89259000  0.77683000  0.61178000  1.0
  C  C109  1  0.84559000  0.66692000  0.69569000  1.0
  C  C110  1  0.81996000  0.64687000  0.74211000  1.0
  C  C111  1  0.87993000  0.64965000  0.75566000  1.0
  C  C112  1  0.89771000  0.62927000  0.78104000  1.0
  C  C113  1  0.85574000  0.60572000  0.79336000  1.0
  C  C114  1  0.79563500  0.60299500  0.77961000  1.0
  C  C115  1  0.77843000  0.62327000  0.75412000  1.0
  C  C116  1  0.88076000  0.64518000  0.66952000  1.0
  C  C117  1  0.00658000  0.60749000  0.67063000  1.0
  C  C118  1  0.94330000  0.61562000  0.65458000  1.0
  C  C119  1  0.07337000  0.59995000  0.66170000  1.0
  C  C120  1  0.86174000  0.50671000  0.94891000  1.0
  C  C121  1  0.62458000  0.48962000  0.95760000  1.0
  C  C122  1  0.74514000  0.53725000  0.87699000  1.0
  C  C123  1  0.52242000  0.45865000  0.98495000  1.0
  C  C124  1  0.55568000  0.48377000  0.97453000  1.0
  C  C125  1  0.02218000  0.50593000  0.99021000  1.0
  C  C126  1  0.96240000  0.51442000  0.97392000  1.0
  C  C127  1  0.92831000  0.49770000  0.96561000  1.0
  C  C128  1  0.99356000  0.54708000  0.98146000  1.0
  C  C129  1  0.87060000  0.55602000  0.82450000  1.0
  C  C130  1  0.80784500  0.53926500  0.83621000  1.0
  C  C131  1  0.80987000  0.51325000  0.83804000  1.0
  C  C132  1  0.87145000  0.50408000  0.82813000  1.0
  C  C133  1  0.93214000  0.52065000  0.81627000  1.0
  C  C134  1  0.93175000  0.54640000  0.81441000  1.0
  C  C135  1  0.87413000  0.58440000  0.82131000  1.0
  C  C136  1  0.73918000  0.54777000  0.84751000  1.0
  C  C137  1  0.91513000  0.73204000  0.60241000  1.0
  C  C138  1  0.52026000  0.50320000  0.98102000  1.0
  C  C139  1  0.02117000  0.46253000  0.99150000  1.0
  C  C140  1  0.95897500  0.47127500  0.97473000  1.0
  C  C141  1  0.15025000  0.59086000  0.62799000  1.0
  C  C142  1  0.86746000  0.77798000  0.58808000  1.0
  C  C143  1  0.87820000  0.75526000  0.58370000  1.0
  C  C144  1  0.16871000  0.55382000  0.57165000  1.0
  C  C145  1  0.99820000  0.44622000  0.56194000  1.0
  C  C146  1  0.49823000  0.44523000  0.56120000  1.0
  C  C147  1  0.83211000  0.80378000  0.56713000  1.0
  C  C148  1  0.16680000  0.60662000  0.59814000  1.0
  C  C149  1  0.17264000  0.59442000  0.58082000  1.0
  C  C150  1  0.19311000  0.65032000  0.56045000  1.0
  C  C151  1  0.17773000  0.63449000  0.58758000  1.0
  C  C152  1  0.16314000  0.56416000  0.59192000  1.0
  C  C153  1  0.49169000  0.41812000  0.99487000  1.0
  C  C154  1  0.88879000  0.82607000  0.55398000  1.0
  C  C155  1  0.87082000  0.85347000  0.54761000  1.0
  C  C156  1  0.92886000  0.87231000  0.53783000  1.0
  C  C157  1  0.96076500  0.81952500  0.54691000  1.0
  C  C158  1  0.79180000  0.86224000  0.55230000  1.0
  C  C159  1  0.18852000  0.61100000  0.55336000  1.0
  C  C160  1  0.19840000  0.63862000  0.54340000  1.0
  C  C161  1  0.77551000  0.89192000  0.53593000  1.0
  C  C162  1  0.64370000  0.97205000  0.51497000  1.0
  C  C163  1  0.12819000  0.51834000  0.52637000  1.0
  C  C164  1  0.35887000  0.51779000  0.52602000  1.0
  C  C165  1  0.96629000  0.47902000  0.52405000  1.0
  C  C166  1  0.02748000  0.48632000  0.53234000  1.0
  C  C167  1  0.06073000  0.51121000  0.51734000  1.0
  C  C168  1  0.97623000  0.99981000  0.51544000  1.0
  C  C169  1  0.46487000  0.48503000  0.53122000  1.0
  C  C170  1  0.42936000  0.51010000  0.51640000  1.0
  C  C171  1  0.52926000  0.47732000  0.52250000  1.0
  C  C172  1  0.53505000  0.99578000  0.52599000  1.0
  C  C173  1  0.46887000  0.01204000  0.51863000  1.0
  C  C174  1  0.00038000  0.86498000  0.53212000  1.0
  C  C175  1  0.01589000  0.83879000  0.53620000  1.0
  C  C176  1  0.86630000  0.48752000  0.49138000  1.0
  C  C177  1  0.63615000  0.48566000  0.48971000  1.0
  C  C178  1  0.87518000  0.97311000  0.50995000  1.0
  C  C179  1  0.93249000  0.49587000  0.49992000  1.0
  C  C180  1  0.02785000  0.52890000  0.49285000  1.0
  C  C181  1  0.94319000  0.98913000  0.50026000  1.0
  C  C182  1  0.03991000  0.01596000  0.50548000  1.0
  C  C183  1  0.46298000  0.52738000  0.49148000  1.0
  C  C184  1  0.56437000  0.49387500  0.49807500  1.0
  C  C185  1  0.57329000  0.98827000  0.50790000  1.0
  C  C186  1  0.43983000  0.02140000  0.49291000  1.0
  C  C187  1  0.36976000  0.03787000  0.48515000  1.0
  C  C188  1  0.96437000  0.52129000  0.48420000  1.0
  C  C189  1  0.97676000  0.99504000  0.47544000  1.0
  C  C190  1  0.07185000  0.02175000  0.48014000  1.0
  C  C191  1  0.52980000  0.51934000  0.48240000  1.0
  C  C192  1  0.54277000  0.99775000  0.48272000  1.0
  C  C193  1  0.47939000  0.01364000  0.47553000  1.0
  C  C194  1  0.13737000  0.03895000  0.46930000  1.0
  C  C195  1  0.45830000  0.45295000  0.00025000  1.0
  C  C196  1  0.97587000  0.40928000  0.37745000  1.0
  C  C197  1  0.97777000  0.38118000  0.39347000  1.0
  C  C198  1  0.01969000  0.36449000  0.38524000  1.0
  C  C199  1  0.99539000  0.35659000  0.30030000  1.0
  C  C200  1  0.02307000  0.37598000  0.25363000  1.0
  C  C201  1  0.04618000  0.35281000  0.25119000  1.0
  C  C202  1  0.09164000  0.35508000  0.22950000  1.0
  C  C203  1  0.11362000  0.38049000  0.20955000  1.0
  C  C204  1  0.08933000  0.40365000  0.21186000  1.0
  C  C205  1  0.04516000  0.40132000  0.23386000  1.0
  C  C206  1  0.99349000  0.31386000  0.33811000  1.0
  C  C207  1  0.02113000  0.26722000  0.35411000  1.0
  C  C208  1  0.04490000  0.24841000  0.37945000  1.0
  C  C209  1  0.09229000  0.22665000  0.38248000  1.0
  C  C210  1  0.11665000  0.22341000  0.36012000  1.0
  C  C211  1  0.09529000  0.24291000  0.33458000  1.0
  C  C212  1  0.04744000  0.26459000  0.33159000  1.0
  C  C213  1  0.06018000  0.34898000  0.33862000  1.0
  C  C214  1  0.05615000  0.40359000  0.34436000  1.0
  C  C215  1  0.05948000  0.37562000  0.36064000  1.0
  C  C216  1  0.01480000  0.42034000  0.35270000  1.0
  C  C217  1  0.81719000  0.45880000  0.43765000  1.0
  C  C218  1  0.11922000  0.47111000  0.01695000  1.0
  C  C219  1  0.16373000  0.44210000  0.09735000  1.0
  C  C220  1  0.34950000  0.46561000  0.02205000  1.0
  C  C221  1  0.22763000  0.11456000  0.42579000  1.0
  C  C222  1  0.03813500  0.01060500  0.46584000  1.0
  C  C223  1  0.00593000  0.99899000  0.43632000  1.0
  C  C224  1  0.42130000  0.47171000  0.00683000  1.0
  C  C225  1  0.45387000  0.49721000  0.99706000  1.0
  C  C226  1  0.51908000  0.00727000  0.44215000  1.0
  C  C227  1  0.05386000  0.47995000  0.99965000  1.0
  C  C228  1  0.96722000  0.42593000  0.41233000  1.0
  C  C229  1  0.92203000  0.43079000  0.43122000  1.0
  C  C230  1  0.95410000  0.42620000  0.45540000  1.0
  C  C231  1  0.03014000  0.41979000  0.45969000  1.0
  C  C232  1  0.07566000  0.41761000  0.44013000  1.0
  C  C233  1  0.04485000  0.42076000  0.41663000  1.0
  C  C234  1  0.93441000  0.42738000  0.38725000  1.0
  C  C235  1  0.83973000  0.43964000  0.42661000  1.0
  C  C236  1  0.20959000  0.40590000  0.17239000  1.0
  C  C237  1  0.20697000  0.42566000  0.14501000  1.0
  C  C238  1  0.25635000  0.44740000  0.13565000  1.0
  C  C239  1  0.30924000  0.44881000  0.15231000  1.0
  C  C240  1  0.31384000  0.42880000  0.17862000  1.0
  C  C241  1  0.26464000  0.40752000  0.18858000  1.0
  C  C242  1  0.15671000  0.38238000  0.18503000  1.0
  C  C243  1  0.15006000  0.42400000  0.12660000  1.0
  C  C244  1  0.10997000  0.17386000  0.37545000  1.0
  C  C245  1  0.12992000  0.14888000  0.39776000  1.0
  C  C246  1  0.07515000  0.12885000  0.40918000  1.0
  C  C247  1  0.00601000  0.13224000  0.39745000  1.0
  C  C248  1  0.98948000  0.15566000  0.37430000  1.0
  C  C249  1  0.04082000  0.17625000  0.36335000  1.0
  C  C250  1  0.16038000  0.19815000  0.36383000  1.0
  C  C251  1  0.20728000  0.14396000  0.40978000  1.0
  N  N252  1  0.92687000  0.66581000  0.65440000  1.0
  N  N253  1  0.87355000  0.62299000  0.66356000  1.0
  N  N254  1  0.89254000  0.68718000  0.68076000  1.0
  N  N255  1  0.98302000  0.70810000  0.64458000  1.0
  N  N256  1  0.83951000  0.64601000  0.68996000  1.0
  N  N257  1  0.80031000  0.66846000  0.71652000  1.0
  N  N258  1  0.03899000  0.36573000  0.31328000  1.0
  N  N259  1  0.10525000  0.35879000  0.35244000  1.0
  N  N260  1  0.97250000  0.33069000  0.31281000  1.0
  N  N261  1  0.97008000  0.37463000  0.27409000  1.0
  N  N262  1  0.03734000  0.32305000  0.35095000  1.0
  N  N263  1  0.96485000  0.28721000  0.35194000  1.0
  O  O264  1  0.74973000  0.55335000  0.88810000  1.0
  O  O265  1  0.74327000  0.51120000  0.89359000  1.0
  O  O266  1  0.65130000  0.51402000  0.94594000  1.0
  O  O267  1  0.66063000  0.47037000  0.95422000  1.0
  O  O268  1  0.83265000  0.53145000  0.93964000  1.0
  O  O269  1  0.82565000  0.49017000  0.94302000  1.0
  O  O270  1  0.54313000  0.43619000  0.98164000  1.0
  O  O271  1  0.94456000  0.54077000  0.96853000  1.0
  O  O272  1  0.23392000  0.54589000  0.56561000  1.0
  O  O273  1  0.04164000  0.52705000  0.99483000  1.0
  O  O274  1  0.10784000  0.55144000  0.56086000  1.0
  O  O275  1  0.77034000  0.90765000  0.54745000  1.0
  O  O276  1  0.32399000  0.50099000  0.54826000  1.0
  O  O277  1  0.16176000  0.50133000  0.54845000  1.0
  O  O278  1  0.04740000  0.46514000  0.55662000  1.0
  O  O279  1  0.94810000  0.45331000  0.54317000  1.0
  O  O280  1  0.55007000  0.45183000  0.54190000  1.0
  O  O281  1  0.44558000  0.46430000  0.55600000  1.0
  O  O282  1  0.67874000  0.96647000  0.53707000  1.0
  O  O283  1  0.84220000  0.96795000  0.53313000  1.0
  O  O284  1  0.32506000  0.54157000  0.51253000  1.0
  O  O285  1  0.15998000  0.54190000  0.51266000  1.0
  O  O286  1  0.67231000  0.46304000  0.50533000  1.0
  O  O287  1  0.83385000  0.46442000  0.50655000  1.0
  O  O288  1  0.67742000  0.96307000  0.49921000  1.0
  O  O289  1  0.77249000  0.90253000  0.50984000  1.0
  O  O290  1  0.84208000  0.96356000  0.49580000  1.0
  O  O291  1  0.32753000  0.04108000  0.50317000  1.0
  O  O292  1  0.16892000  0.04979000  0.48259000  1.0
  O  O293  1  0.67041000  0.50106000  0.46673000  1.0
  O  O294  1  0.83509000  0.50271000  0.46822000  1.0
  O  O295  1  0.43920000  0.42696000  0.00644000  1.0
  O  O296  1  0.77249000  0.45092000  0.45885000  1.0
  O  O297  1  0.84875000  0.48233000  0.42800000  1.0
  O  O298  1  0.31379000  0.44329000  0.02814000  1.0
  O  O299  1  0.31483000  0.48266000  0.02933000  1.0
  O  O300  1  0.21697000  0.43581000  0.08420000  1.0
  O  O301  1  0.11825000  0.46281000  0.08438000  1.0
  O  O302  1  0.15214000  0.44717000  0.02451000  1.0
  O  O303  1  0.14973000  0.48670000  0.02545000  1.0
  O  O304  1  0.23412000  0.09817000  0.41483000  1.0
  O  O305  1  0.23315000  0.10309000  0.45198000  1.0
  O  O306  1  0.34688000  0.04836000  0.46052000  1.0
  O  O307  1  0.16824000  0.04466000  0.44568000  1.0
  O  O308  1  0.05622000  0.01298000  0.44078000  1.0
  O  O309  1  0.95668000  0.98777000  0.45633000  1.0
  O  O310  1  0.46473000  0.01951000  0.44954000  1.0
  O  O311  1  0.56773000  0.99390000  0.46115000  1.0
